/*--------------------------------*- C++ -*----------------------------------*\
  =========                 |
  \\      /  F ield         | OpenFOAM: The Open Source CFD Toolbox
   \\    /   O peration     | Website:  https://openfoam.org
    \\  /    A nd           | Version:  9
     \\/     M anipulation  |
\*---------------------------------------------------------------------------*/
FoamFile
{
    version     2.0;
    format      ascii;
    class       volScalarField;
    location    "0";
    object      p;
}
// * * * * * * * * * * * * * * * * * * * * * * * * * * * * * * * * * * * * * //

dimensions      [0 0 0 0 0 0 0];

internalField   uniform 0;

boundaryField
{
    left
    {
        type            fixedGradient;
        gradient        uniform 38759.68992248062;
    }
    
    right
    {
        type            fixedValue;
        value           uniform 0;
    }
    
    emptyFaces1D
    {
        type            empty;
    }
}

/* boundaryField
{
    right
    {
        type            fixedValue;
        value           uniform 0.0;
    }

    left
    {
        type            fixedValue;
        value           uniform 1.0e6;

        // type            fixedGradient;
        // gradient        
    }

    emptyFaces1D
    {
        type            empty;
    }
} */

// ************************************************************************* //
