/*--------------------------------*- C++ -*----------------------------------*\
  =========                 |
  \\      /  F ield         | OpenFOAM: The Open Source CFD Toolbox
   \\    /   O peration     | Website:  https://openfoam.org
    \\  /    A nd           | Version:  9
     \\/     M anipulation  |
\*---------------------------------------------------------------------------*/
FoamFile
{
    format      ascii;
    class       dictionary;
    location    "constant";
    object      transportProperties;
}
// * * * * * * * * * * * * * * * * * * * * * * * * * * * * * * * * * * * * * //

mu_w              mu_w [0 0 0 0 0 0 0] 1.0e-03;

mu_o              mu_o [0 0 0 0 0 0 0] 20.0*mu_w;

prst            prst [0 0 0 0 0 0 0] 0.25;

K               K [0 0 0 0 0 0 0] 1.0e-12; 

// ************************************************************************* //
