/*--------------------------------*- C++ -*----------------------------------*\
| =========                 |                                                 |
| \\      /  F ield         | OpenFOAM: The Open Source CFD Toolbox           |
|  \\    /   O peration     | Version:  v2312                                 |
|   \\  /    A nd           | Website:  www.openfoam.com                      |
|    \\/     M anipulation  |                                                 |
\*---------------------------------------------------------------------------*/
FoamFile
{
    version     2.0;
    format      ascii;
    class       volScalarField;
    object      T;
}
// * * * * * * * * * * * * * * * * * * * * * * * * * * * * * * * * * * * * * //

dimensions      [0 0 0 1 0 0 0];

internalField   uniform 200;

boundaryField
{
    inlet1 {
        type            fixedValue;
        value           uniform 573;
    }

    inlet2 {
        type            fixedValue;
        value           uniform 200;
    }

    inlet3 {
        type            fixedValue;
        value           uniform 200;
    }

    right
    {
        type            zeroGradient;
    }
    
    left
    {
        type            zeroGradient;
    }

    up
    {
        type zeroGradient;
    }

    down
    {
        type zeroGradient;
    }
    
    emptyWalls
    {
        type empty;
    }

}


// ************************************************************************* //
