/*--------------------------------*- C++ -*----------------------------------*\
  =========                 |
  \\      /  F ield         | OpenFOAM: The Open Source CFD Toolbox
   \\    /   O peration     | Website:  https://openfoam.org
    \\  /    A nd           | Version:  9
     \\/     M anipulation  |
\*---------------------------------------------------------------------------*/
FoamFile
{
    format      ascii;
    class       dictionary;
    object      blockMeshDict;
}
// * * * * * * * * * * * * * * * * * * * * * * * * * * * * * * * * * * * * * //

// convertToMeters 0.1;

vertices
(
    (0 0 0)
    (2 0 0)
    (2 0.1 0)
    (0 0.1 0)
    (0 0 0.1)
    (2 0 0.1)
    (2 0.1 0.1)
    (0 0.1 0.1)
);

blocks
(
    hex (0 1 2 3 4 5 6 7) (45 1 1) simpleGrading (1 1 1)
);

edges
(
);

boundary
(
    inlet
    {
        type wall;
        faces
        (
            (3 7 4 0)
        );
    }
    outlet
    {
        type wall;
        faces
        (
            (1 5 6 2)
        );
    }
    emptyWalls
    {
        type empty;
        faces
        (
            (3 0 1 2)
            (7 3 2 6)
	        (5 4 7 6)
            (4 5 1 0)
        );
    }
);

mergePatchPairs
(
);

// ************************************************************************* //
